2024_89_CemigReconfigurationCases/1_SEsCemig/IIGD210/IIGD210CargaMT_Dez.dss
new load.3009000409M1 bus1=BMT161689894.1.2.3.0,Phases=3,kv=13.8,kW=33.55822,pf=0.92,Vminpu=0.93,Vmaxpu=1.5,model=8,zipv=[0.5,0,0.5,1,0,0,0],daily=A4-3,status=variable
new load.3009000410M1 bus1=BMT100955577.1.2.3.0,Phases=3,kv=13.8,kW=15.70546,pf=0.92,Vminpu=0.93,Vmaxpu=1.5,model=8,zipv=[0.5,0,0.5,1,0,0,0],daily=A4-2,status=variable
new load.3009000826M1 bus1=BMT160899330.1.2.3.0,Phases=3,kv=13.8,kW=2311.19156,pf=0.92,Vminpu=0.93,Vmaxpu=1.5,model=8,zipv=[0.5,0,0.5,1,0,0,0],daily=A4-7,status=variable
new load.3009002075M1 bus1=BMT100951517.1.2.3.0,Phases=3,kv=13.8,kW=41.94776,pf=0.92,Vminpu=0.93,Vmaxpu=1.5,model=8,zipv=[0.5,0,0.5,1,0,0,0],daily=A4-3,status=variable
new load.3009002077M1 bus1=BMT100951405.1.2.3.0,Phases=3,kv=13.8,kW=11.6838,pf=0.92,Vminpu=0.93,Vmaxpu=1.5,model=8,zipv=[0.5,0,0.5,1,0,0,0],daily=A4-1,status=variable
new load.3009003875M1 bus1=BMT100957558.1.2.3.0,Phases=3,kv=13.8,kW=26.92364,pf=0.92,Vminpu=0.93,Vmaxpu=1.5,model=8,zipv=[0.5,0,0.5,1,0,0,0],daily=A4-2,status=variable
new load.3009005600M1 bus1=BMT150341208.1.2.3.0,Phases=3,kv=13.8,kW=4.78844,pf=0.92,Vminpu=0.93,Vmaxpu=1.5,model=8,zipv=[0.5,0,0.5,1,0,0,0],daily=A4-1,status=variable
new load.3009005601M1 bus1=BMT150341206.1.2.3.0,Phases=3,kv=13.8,kW=20.19272,pf=0.92,Vminpu=0.93,Vmaxpu=1.5,model=8,zipv=[0.5,0,0.5,1,0,0,0],daily=A4-2,status=variable
new load.3009005602M1 bus1=BMT172739120.1.2.3.0,Phases=3,kv=13.8,kW=9.57688,pf=0.92,Vminpu=0.93,Vmaxpu=1.5,model=8,zipv=[0.5,0,0.5,1,0,0,0],daily=A4-1,status=variable
new load.3009005606M1 bus1=BMT150341200.1.2.3.0,Phases=3,kv=13.8,kW=104.56644,pf=0.92,Vminpu=0.93,Vmaxpu=1.5,model=8,zipv=[0.5,0,0.5,1,0,0,0],daily=A4-4,status=variable
new load.3009009710M1 bus1=BMT100945749.1.2.3.0,Phases=3,kv=13.8,kW=11.17302,pf=0.92,Vminpu=0.93,Vmaxpu=1.5,model=8,zipv=[0.5,0,0.5,1,0,0,0],daily=A4-1,status=variable
new load.3009010229M1 bus1=BMT169483153.1.2.3.0,Phases=3,kv=13.8,kW=20.74992,pf=0.92,Vminpu=0.93,Vmaxpu=1.5,model=8,zipv=[0.5,0,0.5,1,0,0,0],daily=A4-1,status=variable
new load.3009011227M1 bus1=BMT160932772.1.2.0,Phases=2,kv=13.8,kW=60.82426,pf=0.92,Vminpu=0.93,Vmaxpu=1.5,model=8,zipv=[0.5,0,0.5,1,0,0,0],daily=A4-3,status=variable
new load.3009011942M1 bus1=BMT100945560.1.2.3.0,Phases=3,kv=13.8,kW=107.69456,pf=0.92,Vminpu=0.93,Vmaxpu=1.5,model=8,zipv=[0.5,0,0.5,1,0,0,0],daily=A4-2,status=variable
new load.3009012837M1 bus1=BMT100951531.1.2.3.0,Phases=3,kv=13.8,kW=29.16728,pf=0.92,Vminpu=0.93,Vmaxpu=1.5,model=8,zipv=[0.5,0,0.5,1,0,0,0],daily=A4-2,status=variable
new load.3009013882M1 bus1=BMT100954254.1.2.3.0,Phases=3,kv=13.8,kW=33.55822,pf=0.92,Vminpu=0.93,Vmaxpu=1.5,model=8,zipv=[0.5,0,0.5,1,0,0,0],daily=A4-3,status=variable
new load.3009014076M1 bus1=BMT100954240.1.2.3.0,Phases=3,kv=13.8,kW=1.59614,pf=0.92,Vminpu=0.93,Vmaxpu=1.5,model=8,zipv=[0.5,0,0.5,1,0,0,0],daily=A4-1,status=variable
new load.3009014121M1 bus1=BMT100945735.1.2.3.0,Phases=3,kv=13.8,kW=7.98074,pf=0.92,Vminpu=0.93,Vmaxpu=1.5,model=8,zipv=[0.5,0,0.5,1,0,0,0],daily=A4-1,status=variable
new load.3009014326M1 bus1=BMT150341188.1.2.3.0,Phases=3,kv=13.8,kW=35.6556,pf=0.92,Vminpu=0.93,Vmaxpu=1.5,model=8,zipv=[0.5,0,0.5,1,0,0,0],daily=A4-3,status=variable
new load.3009018008M1 bus1=BMT150341190.1.2.3.0,Phases=3,kv=13.8,kW=29.16728,pf=0.92,Vminpu=0.93,Vmaxpu=1.5,model=8,zipv=[0.5,0,0.5,1,0,0,0],daily=A4-2,status=variable
new load.3009018076M1 bus1=BMT164232358.1.2.3.0,Phases=3,kv=13.8,kW=106.96682,pf=0.92,Vminpu=0.93,Vmaxpu=1.5,model=8,zipv=[0.5,0,0.5,1,0,0,0],daily=A4-3,status=variable
new load.3009018190M1 bus1=BMT100954898.1.2.3.0,Phases=3,kv=13.8,kW=50.33732,pf=0.92,Vminpu=0.93,Vmaxpu=1.5,model=8,zipv=[0.5,0,0.5,1,0,0,0],daily=A4-3,status=variable
new load.3009018473M1 bus1=BMT156049326.1.2.3.0,Phases=3,kv=13.8,kW=52.43472,pf=0.92,Vminpu=0.93,Vmaxpu=1.5,model=8,zipv=[0.5,0,0.5,1,0,0,0],daily=A4-3,status=variable
new load.3009018474M1 bus1=BMT100957250.1.2.3.0,Phases=3,kv=13.8,kW=11.21818,pf=0.92,Vminpu=0.93,Vmaxpu=1.5,model=8,zipv=[0.5,0,0.5,1,0,0,0],daily=A4-2,status=variable
new load.3009018914M1 bus1=BMT159908466.1.2.3.0,Phases=3,kv=13.8,kW=77.60338,pf=0.92,Vminpu=0.93,Vmaxpu=1.5,model=8,zipv=[0.5,0,0.5,1,0,0,0],daily=A4-3,status=variable
new load.3009019107M1 bus1=BMT100957509.1.2.3.0,Phases=3,kv=13.8,kW=6.38458,pf=0.92,Vminpu=0.93,Vmaxpu=1.5,model=8,zipv=[0.5,0,0.5,1,0,0,0],daily=A4-1,status=variable
new load.3009019953M1 bus1=BMT101012074.1.2.3.0,Phases=3,kv=13.8,kW=407.14558,pf=0.92,Vminpu=0.93,Vmaxpu=1.5,model=8,zipv=[0.5,0,0.5,1,0,0,0],daily=A4-5,status=variable
new load.3009020265M1 bus1=BMT100954562.1.2.3.0,Phases=3,kv=13.8,kW=119.5045,pf=0.92,Vminpu=0.93,Vmaxpu=1.5,model=8,zipv=[0.5,0,0.5,1,0,0,0],daily=A4-4,status=variable
new load.3009020329M1 bus1=BMT100946155.1.2.3.0,Phases=3,kv=13.8,kW=33.65454,pf=0.92,Vminpu=0.93,Vmaxpu=1.5,model=8,zipv=[0.5,0,0.5,1,0,0,0],daily=A4-2,status=variable
new load.3009020787M1 bus1=BMT101012060.1.2.3.0,Phases=3,kv=13.8,kW=9.57688,pf=0.92,Vminpu=0.93,Vmaxpu=1.5,model=8,zipv=[0.5,0,0.5,1,0,0,0],daily=A4-1,status=variable
new load.3009020855M1 bus1=BMT150341204.1.2.3.0,Phases=3,kv=13.8,kW=33.65454,pf=0.92,Vminpu=0.93,Vmaxpu=1.5,model=8,zipv=[0.5,0,0.5,1,0,0,0],daily=A4-2,status=variable
new load.3009020960M1 bus1=BMT100954506.1.2.3.0,Phases=3,kv=13.8,kW=2.24364,pf=0.92,Vminpu=0.93,Vmaxpu=1.5,model=8,zipv=[0.5,0,0.5,1,0,0,0],daily=A4-2,status=variable
new load.3009022178M1 bus1=BMT150341226.1.2.3.0,Phases=3,kv=13.8,kW=35.6556,pf=0.92,Vminpu=0.93,Vmaxpu=1.5,model=8,zipv=[0.5,0,0.5,1,0,0,0],daily=A4-3,status=variable
new load.3010001701M1 bus1=BMT100951006.1.2.3.0,Phases=3,kv=13.8,kW=56.09092,pf=0.92,Vminpu=0.93,Vmaxpu=1.5,model=8,zipv=[0.5,0,0.5,1,0,0,0],daily=A4-2,status=variable
new load.3010263705M1 bus1=BMT100961121.1.2.3.0,Phases=3,kv=13.8,kW=49.36,pf=0.92,Vminpu=0.93,Vmaxpu=1.5,model=8,zipv=[0.5,0,0.5,1,0,0,0],daily=A4-2,status=variable
new load.3010314021M1 bus1=BMT156119707.1.2.3.0,Phases=3,kv=13.8,kW=26.92364,pf=0.92,Vminpu=0.93,Vmaxpu=1.5,model=8,zipv=[0.5,0,0.5,1,0,0,0],daily=A4-2,status=variable
new load.3010334277M1 bus1=BMT165013667.1.2.3.0,Phases=3,kv=13.8,kW=44.87272,pf=0.92,Vminpu=0.93,Vmaxpu=1.5,model=8,zipv=[0.5,0,0.5,1,0,0,0],daily=A4-2,status=variable
new load.3010457944M1 bus1=BMT100945679.1.2.3.0,Phases=3,kv=13.8,kW=42.6291,pf=0.92,Vminpu=0.93,Vmaxpu=1.5,model=8,zipv=[0.5,0,0.5,1,0,0,0],daily=A4-2,status=variable
new load.3010769340M1 bus1=BMT150341194.1.2.3.0,Phases=3,kv=13.8,kW=62.3182,pf=0.92,Vminpu=0.93,Vmaxpu=1.5,model=8,zipv=[0.5,0,0.5,1,0,0,0],daily=A4-5,status=variable
new load.3010791689M1 bus1=BMT150342589.1.2.3.0,Phases=3,kv=13.8,kW=15.96148,pf=0.92,Vminpu=0.93,Vmaxpu=1.5,model=8,zipv=[0.5,0,0.5,1,0,0,0],daily=A4-1,status=variable
new load.3011676987M1 bus1=BMT171602056.1.2.3.0,Phases=3,kv=13.8,kW=20.19272,pf=0.92,Vminpu=0.93,Vmaxpu=1.5,model=8,zipv=[0.5,0,0.5,1,0,0,0],daily=A4-2,status=variable
new load.3011710696M1 bus1=BMT123939769.1.2.3.0,Phases=3,kv=13.8,kW=130.17454,pf=0.92,Vminpu=0.93,Vmaxpu=1.5,model=8,zipv=[0.5,0,0.5,1,0,0,0],daily=A4-4,status=variable
new load.3011905434M1 bus1=BMT159846902.1.2.3.0,Phases=3,kv=13.8,kW=6.38458,pf=0.92,Vminpu=0.93,Vmaxpu=1.5,model=8,zipv=[0.5,0,0.5,1,0,0,0],daily=A4-1,status=variable
new load.3011924258M1 bus1=BMT149065982.1.2.3.0,Phases=3,kv=13.8,kW=62.82182,pf=0.92,Vminpu=0.93,Vmaxpu=1.5,model=8,zipv=[0.5,0,0.5,1,0,0,0],daily=A4-2,status=variable
new load.3012019080M1 bus1=BMT156119703.1.2.3.0,Phases=3,kv=13.8,kW=140.84458,pf=0.92,Vminpu=0.93,Vmaxpu=1.5,model=8,zipv=[0.5,0,0.5,1,0,0,0],daily=A4-4,status=variable
new load.3012049420M1 bus1=BMT148489484.1.2.3.0,Phases=3,kv=13.8,kW=73.4086,pf=0.92,Vminpu=0.93,Vmaxpu=1.5,model=8,zipv=[0.5,0,0.5,1,0,0,0],daily=A4-3,status=variable
new load.3012421149M1 bus1=BMT155839651.1.2.3.0,Phases=3,kv=13.8,kW=270.04554,pf=0.92,Vminpu=0.93,Vmaxpu=1.5,model=8,zipv=[0.5,0,0.5,1,0,0,0],daily=A4-5,status=variable
new load.3012468188M1 bus1=BMT156119535.1.2.3.0,Phases=3,kv=13.8,kW=115.23648,pf=0.92,Vminpu=0.93,Vmaxpu=1.5,model=8,zipv=[0.5,0,0.5,1,0,0,0],daily=A4-4,status=variable
new load.3012481178M1 bus1=BMT159728998.1.2.3.0,Phases=3,kv=13.8,kW=83.09094,pf=0.92,Vminpu=0.93,Vmaxpu=1.5,model=8,zipv=[0.5,0,0.5,1,0,0,0],daily=A4-5,status=variable
new load.3012531932M1 bus1=BMT160279341.1.2.3.0,Phases=3,kv=13.8,kW=76.28364,pf=0.92,Vminpu=0.93,Vmaxpu=1.5,model=8,zipv=[0.5,0,0.5,1,0,0,0],daily=A4-2,status=variable
new load.3012533644M1 bus1=BMT156913239.1.2.3.0,Phases=3,kv=13.8,kW=67.3091,pf=0.92,Vminpu=0.93,Vmaxpu=1.5,model=8,zipv=[0.5,0,0.5,1,0,0,0],daily=A4-2,status=variable
new load.3012767938M1 bus1=BMT156119535.1.2.3.0,Phases=3,kv=13.8,kW=73.4086,pf=0.92,Vminpu=0.93,Vmaxpu=1.5,model=8,zipv=[0.5,0,0.5,1,0,0,0],daily=A4-3,status=variable
new load.3012789368M1 bus1=BMT156119535.1.2.3.0,Phases=3,kv=13.8,kW=81.79814,pf=0.92,Vminpu=0.93,Vmaxpu=1.5,model=8,zipv=[0.5,0,0.5,1,0,0,0],daily=A4-3,status=variable
new load.3012910062M1 bus1=BMT168727726.1.2.3.0,Phases=3,kv=13.8,kW=123.74592,pf=0.92,Vminpu=0.93,Vmaxpu=1.5,model=8,zipv=[0.5,0,0.5,1,0,0,0],daily=A4-3,status=variable
new load.3013020797M1 bus1=BMT157718438.1.2.3.0,Phases=3,kv=13.8,kW=26.92364,pf=0.92,Vminpu=0.93,Vmaxpu=1.5,model=8,zipv=[0.5,0,0.5,1,0,0,0],daily=A4-2,status=variable
new load.3013135193M1 bus1=BMT148501112.1.2.3.0,Phases=3,kv=13.8,kW=440.79426,pf=0.92,Vminpu=0.93,Vmaxpu=1.5,model=8,zipv=[0.5,0,0.5,1,0,0,0],daily=A4-7,status=variable
new load.3013198340M1 bus1=BMT100954954.1.2.3.0,Phases=3,kv=13.8,kW=528.66166,pf=0.92,Vminpu=0.93,Vmaxpu=1.5,model=8,zipv=[0.5,0,0.5,1,0,0,0],daily=A4-6,status=variable
new load.3013203865M1 bus1=BMT156119535.1.2.3.0,Phases=3,kv=13.8,kW=1007.52976,pf=0.92,Vminpu=0.93,Vmaxpu=1.5,model=8,zipv=[0.5,0,0.5,1,0,0,0],daily=A4-7,status=variable
new load.3013203897M1 bus1=BMT156119535.1.2.3.0,Phases=3,kv=13.8,kW=478.23626,pf=0.92,Vminpu=0.93,Vmaxpu=1.5,model=8,zipv=[0.5,0,0.5,1,0,0,0],daily=A4-7,status=variable
new load.3013295854M1 bus1=BMT160982639.1.2.3.0,Phases=3,kv=13.8,kW=279.55518,pf=0.92,Vminpu=0.93,Vmaxpu=1.5,model=8,zipv=[0.5,0,0.5,1,0,0,0],daily=A4-4,status=variable
new load.3013362391M1 bus1=BMT104848704.1.2.3.0,Phases=3,kv=13.8,kW=249.67904,pf=0.92,Vminpu=0.93,Vmaxpu=1.5,model=8,zipv=[0.5,0,0.5,1,0,0,0],daily=A4-4,status=variable
new load.3013362626M1 bus1=BMT156119535.1.2.3.0,Phases=3,kv=13.8,kW=413.3774,pf=0.92,Vminpu=0.93,Vmaxpu=1.5,model=8,zipv=[0.5,0,0.5,1,0,0,0],daily=A4-5,status=variable
